Version 4
SHEET 1 1788 680
WIRE -64 32 -64 -16
WIRE 80 32 80 -16
WIRE 80 144 80 112
WIRE 336 144 240 144
WIRE 480 144 416 144
WIRE -64 176 -64 112
WIRE 336 256 336 224
WIRE 112 272 32 272
WIRE 240 272 240 144
WIRE 240 272 192 272
WIRE 304 272 240 272
WIRE 480 288 480 144
WIRE 480 288 368 288
WIRE 512 288 480 288
WIRE 608 288 512 288
WIRE 32 304 32 272
WIRE 304 304 208 304
WIRE 608 304 608 288
WIRE 32 432 32 368
WIRE 208 432 208 304
WIRE 336 432 336 320
WIRE 512 432 512 288
WIRE 608 432 608 384
WIRE 512 576 512 512
WIRE 208 592 208 512
FLAG 32 432 0
FLAG 608 432 0
FLAG 208 592 0
FLAG 336 224 V_Pos
IOPIN 336 224 In
FLAG 336 432 V_Neg
IOPIN 336 432 In
FLAG -64 -16 V_Pos
FLAG -64 176 0
FLAG 80 -16 0
FLAG 80 144 V_Neg
FLAG 512 576 0
SYMBOL Res 432 128 R90
WINDOW 0 0 56 VBottom 2
WINDOW 3 32 56 VTop 2
SYMATTR InstName R1
SYMATTR Value 100k
SYMBOL Res 208 256 R90
WINDOW 0 0 56 VBottom 2
WINDOW 3 32 56 VTop 2
SYMATTR InstName R2
SYMATTR Value 2k
SYMBOL Res 592 288 R0
SYMATTR InstName R3
SYMATTR Value 100
SYMBOL OpAmps/AD795 336 224 R0
SYMATTR InstName U2
SYMBOL Voltage 208 416 R0
SYMATTR InstName V1
SYMATTR Value SINE(0 150n 60)
SYMBOL Cap 16 304 R0
SYMATTR InstName C1
SYMATTR Value 4.7µ
SYMBOL Voltage -64 16 R0
SYMATTR InstName V2
SYMATTR Value 15
SYMBOL Voltage 80 16 R0
SYMATTR InstName V3
SYMATTR Value 15
SYMBOL bv 512 416 R0
SYMATTR InstName B1
SYMATTR Value V=(white(1e6*time) * 6.26u)
TEXT 856 288 Left 2 !.tran 0 1 .1
